<configuration>
    <input>
        <net-file value="city.net.xml"/>
        <route-files value="half_traffic.rou.xml"/>
        <additional-files value="buildings.poly.xml"/>
    </input>
    <time>
        <begin value="0"/>
        <end value="100"/>
        <step-length value="0.1"/>
    </time>
</configuration>