<?xml version="1.0" encoding="UTF-8"?>

<!-- generated on 2026-06-27 10:06:21 by Eclipse SUMO netgenerate Version 1.18.0
<configuration xmlns:xsi="http://www.w3.org/2001/XMLSchema-instance" xsi:noNamespaceSchemaLocation="http://sumo.dlr.de/xsd/netgenerateConfiguration.xsd">

    <grid_network>
        <grid value="true"/>
        <grid.length value="1000"/>
        <grid.x-number value="1100"/>
        <grid.y-number value="200"/>
        <grid.z-number value="50"/>
    </grid_network>

    <output>
        <output-file value="straight_road.net.xml"/>
    </output>

</configuration>
-->

<net version="1.16" xmlns:xsi="http://www.w3.org/2001/XMLSchema-instance" xsi:noNamespaceSchemaLocation="http://sumo.dlr.de/xsd/net_file.xsd">

        <location netOffset="0.00,0.00" convBoundary="0.00,0.00,1000.00,100.00" origBoundary="0.00,0.00,1000.00,100.00" projParameter="!"/>
    
    <edge id="straight_edge" from="start_node" to="end_node" priority="-1">
        <lane id="straight_edge_0" index="0" speed="20.00" length="1000.00" shape="0.00,100.00 1000.00,100.00"/>
    </edge>
    
    <junction id="start_node" type="dead_end" x="0.00" y="100.00" incLanes="" intLanes="" shape="0.00,101.60 0.00,98.40"/>
    <junction id="end_node" type="dead_end" x="1000.00" y="100.00" incLanes="straight_edge_0" intLanes="" shape="1000.00,98.40 1000.00,101.60"/>

</net>
