<?xml version="1.0" encoding="UTF-8"?>

<!-- generated on 2026-06-27 10:06:21 by Eclipse SUMO netgenerate Version 1.18.0
<configuration xmlns:xsi="http://www.w3.org/2001/XMLSchema-instance" xsi:noNamespaceSchemaLocation="http://sumo.dlr.de/xsd/netgenerateConfiguration.xsd">

    <grid_network>
        <grid value="true"/>
        <grid.length value="1000"/>
        <grid.x-number value="1100"/>
        <grid.y-number value="200"/>
        <grid.z-number value="50"/>
    </grid_network>

    <output>
        <output-file value="straight_road.net.xml"/>
    </output>

</configuration>
-->

<net version="1.16" junctionCornerDetail="5" limitTurnSpeed="5.50" xmlns:xsi="http://www.w3.org/2001/XMLSchema-instance" xsi:noNamespaceSchemaLocation="http://sumo.dlr.de/xsd/net_file.xsd">

    <location netOffset="10.00,0.00" convBoundary="10.00,100.00,1010.00,100.00" origBoundary="10.00,100.00,1010.00,100.00" projParameter="!"/>

    <edge id=":A0_0" function="internal">
        <lane id=":A0_0_0" index="0" speed="3.65" length="4.67" shape="10.00,101.60 8.80,100.80 8.40,100.00 8.80,99.20 10.00,98.40"/>
    </edge>
    <edge id=":B0_0" function="internal">
        <lane id=":B0_0_0" index="0" speed="3.65" length="4.67" shape="1010.00,98.40 1011.20,99.20 1011.60,100.00 1011.20,100.80 1010.00,101.60"/>
    </edge>

    <edge id="A0B0" from="A0" to="B0" priority="-1">
        <lane id="A0B0_0" index="0" speed="13.89" length="1000.00" shape="10.00,98.40 1010.00,98.40"/>
    </edge>
    <edge id="B0A0" from="B0" to="A0" priority="-1">
        <lane id="B0A0_0" index="0" speed="13.89" length="1000.00" shape="1010.00,101.60 10.00,101.60"/>
    </edge>

    <junction id="A0" type="priority" x="10.00" y="100.00" incLanes="B0A0_0" intLanes=":A0_0_0" shape="10.00,100.00 10.00,103.20 10.00,100.00">
        <request index="0" response="0" foes="0" cont="0"/>
    </junction>
    <junction id="B0" type="priority" x="1010.00" y="100.00" incLanes="A0B0_0" intLanes=":B0_0_0" shape="1010.00,100.00 1010.00,96.80 1010.00,100.00">
        <request index="0" response="0" foes="0" cont="0"/>
    </junction>

    <connection from="A0B0" to="B0A0" fromLane="0" toLane="0" via=":B0_0_0" dir="t" state="M"/>
    <connection from="B0A0" to="A0B0" fromLane="0" toLane="0" via=":A0_0_0" dir="t" state="M"/>

    <connection from=":A0_0" to="A0B0" fromLane="0" toLane="0" dir="t" state="M"/>
    <connection from=":B0_0" to="B0A0" fromLane="0" toLane="0" dir="t" state="M"/>

</net>
